# This is a an artifitial atom configuraton that demonstrates a
# non-interleaving covalently bound network of atoms.

data_P432
_symmetry_space_group_name_H-M P432
_cell_length_a 4.8
_cell_length_b 4.8
_cell_length_c 4.8
_cell_angle_alpha 90
_cell_angle_beta  90
_cell_angle_gamma 90
loop_
_atom_site_label
_atom_site_fract_x
_atom_site_fract_y
_atom_site_fract_z
C1 0 0 0
C2 0 0.3333333 0
